
  Mrv2503 06262623193D            

 83 89  0  0  0  0            999 V2000
    9.3477    5.4546    2.8050 C   0  5  0  0  0  0  0  0  0  0  0  0
    8.6390    4.5831    2.4257 N   0  3  0  0  0  0  0  0  0  0  0  0
    7.8269    3.5626    1.9888 C   0  0  0  0  0  0  0  0  0  0  0  0
    7.2271    3.5572    0.7850 C   0  0  0  0  0  0  0  0  0  0  0  0
    6.3670    2.4796    0.3084 C   0  0  0  0  0  0  0  0  0  0  0  0
    5.2536    2.0635    1.0445 C   0  0  0  0  0  0  0  0  0  0  0  0
    4.4468    1.0351    0.5757 C   0  0  0  0  0  0  0  0  0  0  0  0
    4.7533    0.4168   -0.6463 C   0  0  0  0  0  0  0  0  0  0  0  0
    3.9382   -0.6365   -1.1302 N   0  0  0  0  0  0  0  0  0  0  0  0
    4.5393   -1.7540   -1.7558 C   0  0  0  0  0  0  0  0  0  0  0  0
    3.9035   -2.3694   -2.8472 C   0  0  0  0  0  0  0  0  0  0  0  0
    4.4961   -3.4666   -3.4614 C   0  0  0  0  0  0  0  0  0  0  0  0
    5.7160   -3.9327   -2.9844 C   0  0  0  0  0  0  0  0  0  0  0  0
    6.5223   -5.4290   -3.8263 Br  0  0  0  0  0  0  0  0  0  0  0  0
    6.3621   -3.3348   -1.9083 C   0  0  0  0  0  0  0  0  0  0  0  0
    5.7712   -2.2404   -1.2870 C   0  0  0  0  0  0  0  0  0  0  0  0
    2.5369   -0.5855   -0.9578 C   0  0  0  0  0  0  0  0  0  0  0  0
    1.8140   -1.7640   -0.7072 C   0  0  0  0  0  0  0  0  0  0  0  0
    0.4378   -1.7033   -0.5482 C   0  0  0  0  0  0  0  0  0  0  0  0
   -0.2337   -0.4757   -0.6355 C   0  0  0  0  0  0  0  0  0  0  0  0
   -1.6762   -0.4618   -0.4603 C   0  0  0  0  0  0  0  0  0  0  0  0
   -2.4059   -1.4520    0.0741 N   0  0  0  0  0  0  0  0  0  0  0  0
   -3.7388   -1.0388    0.0521 C   0  0  0  0  0  0  0  0  0  0  0  0
   -4.9144   -1.6752    0.4847 C   0  0  0  0  0  0  0  0  0  0  0  0
   -4.8803   -3.0058    1.0989 C   0  0  0  0  0  0  0  0  0  0  0  0
   -4.1189   -4.0254    0.5266 C   0  0  0  0  0  0  0  0  0  0  0  0
   -4.1011   -5.2951    1.1067 C   0  0  0  0  0  0  0  0  0  0  0  0
   -4.8340   -5.5574    2.2555 C   0  0  0  0  0  0  0  0  0  0  0  0
   -5.5866   -4.5173    2.8239 C   0  0  0  0  0  0  0  0  0  0  0  0
   -6.2537   -4.9040    3.9464 O   0  0  0  0  0  0  0  0  0  0  0  0
   -7.0118   -3.9119    4.6229 C   0  0  0  0  0  0  0  0  0  0  0  0
   -5.6227   -3.2443    2.2618 C   0  0  0  0  0  0  0  0  0  0  0  0
   -6.1107   -0.9918    0.3044 C   0  0  0  0  0  0  0  0  0  0  0  0
   -6.1650    0.2905   -0.2736 C   0  0  0  0  0  0  0  0  0  0  0  0
   -5.0197    0.9517   -0.6917 C   0  0  0  0  0  0  0  0  0  0  0  0
   -5.0523    2.2964   -1.2707 C   0  0  0  0  0  0  0  0  0  0  0  0
   -5.8327    2.5596   -2.3949 C   0  0  0  0  0  0  0  0  0  0  0  0
   -5.8448    3.8423   -2.9499 C   0  0  0  0  0  0  0  0  0  0  0  0
   -5.0877    4.8611   -2.3918 C   0  0  0  0  0  0  0  0  0  0  0  0
   -4.3109    4.5784   -1.2549 C   0  0  0  0  0  0  0  0  0  0  0  0
   -3.6253    5.6607   -0.8020 O   0  0  0  0  0  0  0  0  0  0  0  0
   -2.8012    5.4766    0.3412 C   0  0  0  0  0  0  0  0  0  0  0  0
   -4.2794    3.3077   -0.6875 C   0  0  0  0  0  0  0  0  0  0  0  0
   -3.8061    0.2725   -0.5278 C   0  0  0  0  0  0  0  0  0  0  0  0
   -2.4931    0.6242   -0.8418 N   0  0  0  0  0  0  0  0  0  0  0  0
    0.4916    0.6969   -0.8698 C   0  0  0  0  0  0  0  0  0  0  0  0
    1.8685    0.6483   -1.0362 C   0  0  0  0  0  0  0  0  0  0  0  0
    5.8644    0.8379   -1.3945 C   0  0  0  0  0  0  0  0  0  0  0  0
    6.6618    1.8680   -0.9152 C   0  0  0  0  0  0  0  0  0  0  0  0
    7.6591    2.4532    2.9813 C   0  0  0  0  0  0  0  0  0  0  0  0
    6.7378    2.2700    3.7287 O   0  0  0  0  0  0  0  0  0  0  0  0
    8.7276    1.6268    2.9372 O   0  0  0  0  0  0  0  0  0  0  0  0
    7.3768    4.3853    0.0830 H   0  0  0  0  0  0  0  0  0  0  0  0
    5.0164    2.5437    1.9983 H   0  0  0  0  0  0  0  0  0  0  0  0
    3.5889    0.7032    1.1607 H   0  0  0  0  0  0  0  0  0  0  0  0
    2.9531   -1.9832   -3.2163 H   0  0  0  0  0  0  0  0  0  0  0  0
    3.9991   -3.9423   -4.3090 H   0  0  0  0  0  0  0  0  0  0  0  0
    7.3184   -3.7110   -1.5401 H   0  0  0  0  0  0  0  0  0  0  0  0
    6.2582   -1.7670   -0.4341 H   0  0  0  0  0  0  0  0  0  0  0  0
    2.3320   -2.7188   -0.6233 H   0  0  0  0  0  0  0  0  0  0  0  0
   -0.1345   -2.6158   -0.3404 H   0  0  0  0  0  0  0  0  0  0  0  0
   -3.5230   -3.8222   -0.3629 H   0  0  0  0  0  0  0  0  0  0  0  0
   -3.5024   -6.0848    0.6542 H   0  0  0  0  0  0  0  0  0  0  0  0
   -4.8320   -6.5381    2.7210 H   0  0  0  0  0  0  0  0  0  0  0  0
   -7.4152   -4.4707    5.4781 H   0  0  0  0  0  0  0  0  0  0  0  0
   -6.3692   -3.0958    4.9687 H   0  0  0  0  0  0  0  0  0  0  0  0
   -7.8246   -3.5428    3.9902 H   0  0  0  0  0  0  0  0  0  0  0  0
   -6.1950   -2.4408    2.7110 H   0  0  0  0  0  0  0  0  0  0  0  0
   -7.0452   -1.4618    0.6130 H   0  0  0  0  0  0  0  0  0  0  0  0
   -7.1352    0.7761   -0.3859 H   0  0  0  0  0  0  0  0  0  0  0  0
   -6.4262    1.7664   -2.8432 H   0  0  0  0  0  0  0  0  0  0  0  0
   -6.4555    4.0416   -3.8309 H   0  0  0  0  0  0  0  0  0  0  0  0
   -5.0856    5.8640   -2.8093 H   0  0  0  0  0  0  0  0  0  0  0  0
   -3.3973    5.1793    1.2102 H   0  0  0  0  0  0  0  0  0  0  0  0
   -2.3845    6.4824    0.4898 H   0  0  0  0  0  0  0  0  0  0  0  0
   -2.0027    4.7574    0.1367 H   0  0  0  0  0  0  0  0  0  0  0  0
   -3.6999    3.0949    0.2044 H   0  0  0  0  0  0  0  0  0  0  0  0
   -2.2212    1.4542   -1.3186 H   0  0  0  0  0  0  0  0  0  0  0  0
   -0.0127    1.6612   -0.9192 H   0  0  0  0  0  0  0  0  0  0  0  0
    2.4282    1.5614   -1.2340 H   0  0  0  0  0  0  0  0  0  0  0  0
    6.0940    0.3640   -2.3478 H   0  0  0  0  0  0  0  0  0  0  0  0
    7.5258    2.1970   -1.4936 H   0  0  0  0  0  0  0  0  0  0  0  0
    8.6610    0.8613    3.5675 H   0  0  0  0  0  0  0  0  0  0  0  0
  1  2  1  0  0  0  0
  2  3  1  0  0  0  0
  3  4  2  0  0  0  0
  4  5  1  0  0  0  0
  6  5  4  0  0  0  0
  7  6  4  0  0  0  0
  8  7  4  0  0  0  0
  8  9  1  0  0  0  0
  9 10  1  0  0  0  0
 11 10  4  0  0  0  0
 12 11  4  0  0  0  0
 13 12  4  0  0  0  0
 13 14  1  0  0  0  0
 15 13  4  0  0  0  0
 16 15  4  0  0  0  0
  9 17  1  0  0  0  0
 18 17  4  0  0  0  0
 19 18  4  0  0  0  0
 20 19  4  0  0  0  0
 20 21  1  0  0  0  0
 22 21  4  0  0  0  0
 23 22  4  0  0  0  0
 23 24  4  0  0  0  0
 24 25  1  0  0  0  0
 26 25  4  0  0  0  0
 27 26  4  0  0  0  0
 28 27  4  0  0  0  0
 29 28  4  0  0  0  0
 29 30  1  0  0  0  0
 30 31  1  0  0  0  0
 32 29  4  0  0  0  0
 24 33  4  0  0  0  0
 33 34  4  0  0  0  0
 34 35  4  0  0  0  0
 35 36  1  0  0  0  0
 37 36  4  0  0  0  0
 38 37  4  0  0  0  0
 39 38  4  0  0  0  0
 40 39  4  0  0  0  0
 40 41  1  0  0  0  0
 41 42  1  0  0  0  0
 43 40  4  0  0  0  0
 35 44  4  0  0  0  0
 45 44  4  0  0  0  0
 46 20  4  0  0  0  0
 47 46  4  0  0  0  0
 48  8  4  0  0  0  0
 49 48  4  0  0  0  0
  3 50  1  0  0  0  0
 50 51  2  0  0  0  0
 50 52  1  0  0  0  0
  5 49  4  0  0  0  0
 10 16  4  0  0  0  0
 17 47  4  0  0  0  0
 21 45  4  0  0  0  0
 44 23  4  0  0  0  0
 25 32  4  0  0  0  0
 36 43  4  0  0  0  0
  4 53  1  0  0  0  0
  6 54  1  0  0  0  0
  7 55  1  0  0  0  0
 11 56  1  0  0  0  0
 12 57  1  0  0  0  0
 15 58  1  0  0  0  0
 16 59  1  0  0  0  0
 18 60  1  0  0  0  0
 19 61  1  0  0  0  0
 26 62  1  0  0  0  0
 27 63  1  0  0  0  0
 28 64  1  0  0  0  0
 31 65  1  0  0  0  0
 31 66  1  0  0  0  0
 31 67  1  0  0  0  0
 32 68  1  0  0  0  0
 33 69  1  0  0  0  0
 34 70  1  0  0  0  0
 37 71  1  0  0  0  0
 38 72  1  0  0  0  0
 39 73  1  0  0  0  0
 42 74  1  0  0  0  0
 42 75  1  0  0  0  0
 42 76  1  0  0  0  0
 43 77  1  0  0  0  0
 45 78  1  0  0  0  0
 46 79  1  0  0  0  0
 47 80  1  0  0  0  0
 48 81  1  0  0  0  0
 49 82  1  0  0  0  0
 52 83  1  0  0  0  0
M  CHG  2   1  -1   2   1
M  RAD  2   1   3   2   3
M  END
> <ID>
Row1

> <SMILE (InChI Code)>
InChI=1S/C43H31BrN4O4/c1-45-39(43(49)50)24-27-10-16-32(17-11-27)48(34-20-14-31(44)15-21-34)33-18-12-28(13-19-33)42-46-40-37(29-6-4-8-35(25-29)51-2)22-23-38(41(40)47-42)30-7-5-9-36(26-30)52-3/h4-26H,2-3H3,(H,46,47)(H,49,50)/b39-24+

> <ID_2>
VPZKACNWRLWAAB-HZQMBONKSA-N

> <Converged>
true

> <Energy>
161.25541470181687

> <FINAL HEAT OF FORMATION (KCAL/MOL)>
74.5383

> <COSMO AREA (ANGSTROMS)>
698.43

> <COSMO VOLUME (ANGSTROMS)>
829.04

> <GRADIENT NORM>
0.27675

> <IONIZATION POTENTIAL (EV)>
8.296154

> <HOMO (EV)>
-8.296

> <LUMO (EV)>
-1.058

$$$$

  Mrv2503 06262623193D            

101108  0  0  0  0            999 V2000
   -5.0977    8.2247    5.9788 C   0  5  0  0  0  0  0  0  0  0  0  0
   -4.7455    7.3075    5.3156 N   0  3  0  0  0  0  0  0  0  0  0  0
   -4.3272    6.2398    4.5546 C   0  0  0  0  0  0  0  0  0  0  0  0
   -4.1783    6.2947    3.2193 C   0  0  0  0  0  0  0  0  0  0  0  0
   -3.7358    5.1601    2.4142 C   0  0  0  0  0  0  0  0  0  0  0  0
   -4.5206    4.0080    2.3145 C   0  0  0  0  0  0  0  0  0  0  0  0
   -4.0870    2.9287    1.5556 C   0  0  0  0  0  0  0  0  0  0  0  0
   -2.8541    3.0016    0.8883 C   0  0  0  0  0  0  0  0  0  0  0  0
   -2.4006    1.9050    0.1182 N   0  0  0  0  0  0  0  0  0  0  0  0
   -3.3447    1.1261   -0.6038 C   0  0  0  0  0  0  0  0  0  0  0  0
   -3.2416   -0.2727   -0.6112 C   0  0  0  0  0  0  0  0  0  0  0  0
   -4.1677   -1.0223   -1.3256 C   0  0  0  0  0  0  0  0  0  0  0  0
   -5.1962   -0.3899   -2.0292 C   0  0  0  0  0  0  0  0  0  0  0  0
   -6.1721   -1.1880   -2.7834 C   0  0  0  0  0  0  0  0  0  0  0  0
   -6.3408   -0.9665   -4.1516 C   0  0  0  0  0  0  0  0  0  0  0  0
   -7.2674   -1.7324   -4.8531 C   0  0  0  0  0  0  0  0  0  0  0  0
   -8.0209   -2.7072   -4.2111 C   0  0  0  0  0  0  0  0  0  0  0  0
   -7.8632   -2.9323   -2.8280 C   0  0  0  0  0  0  0  0  0  0  0  0
   -8.7138   -3.8167   -2.1393 N   0  0  0  0  0  0  0  0  0  0  0  0
   -9.3834   -4.8527   -2.9444 C   0  0  0  0  0  0  0  0  0  0  0  0
   -8.2156   -4.3406   -0.8550 C   0  0  0  0  0  0  0  0  0  0  0  0
   -6.9174   -2.1614   -2.1234 C   0  0  0  0  0  0  0  0  0  0  0  0
   -5.2958    1.0041   -2.0156 C   0  0  0  0  0  0  0  0  0  0  0  0
   -4.3756    1.7665   -1.3072 C   0  0  0  0  0  0  0  0  0  0  0  0
   -1.0392    1.5401    0.1193 C   0  0  0  0  0  0  0  0  0  0  0  0
   -0.2472    1.7618    1.2601 C   0  0  0  0  0  0  0  0  0  0  0  0
    1.0919    1.3994    1.2503 C   0  0  0  0  0  0  0  0  0  0  0  0
    1.6543    0.8025    0.1176 C   0  0  0  0  0  0  0  0  0  0  0  0
    3.0499    0.4011    0.0792 C   0  0  0  0  0  0  0  0  0  0  0  0
    3.7719    0.1863   -1.0306 N   0  0  0  0  0  0  0  0  0  0  0  0
    5.0515   -0.1923   -0.6213 C   0  0  0  0  0  0  0  0  0  0  0  0
    6.1938   -0.5460   -1.3583 C   0  0  0  0  0  0  0  0  0  0  0  0
    6.1774   -0.5725   -2.8238 C   0  0  0  0  0  0  0  0  0  0  0  0
    5.6119    0.4824   -3.5408 C   0  0  0  0  0  0  0  0  0  0  0  0
    5.6128    0.4594   -4.9366 C   0  0  0  0  0  0  0  0  0  0  0  0
    6.1671   -0.6102   -5.6256 C   0  0  0  0  0  0  0  0  0  0  0  0
    6.7189   -1.6697   -4.8882 C   0  0  0  0  0  0  0  0  0  0  0  0
    7.2205   -2.6574   -5.6812 O   0  0  0  0  0  0  0  0  0  0  0  0
    7.7561   -3.7999   -5.0301 C   0  0  0  0  0  0  0  0  0  0  0  0
    6.7355   -1.6665   -3.4964 C   0  0  0  0  0  0  0  0  0  0  0  0
    7.3383   -0.8730   -0.6412 C   0  0  0  0  0  0  0  0  0  0  0  0
    7.3710   -0.8678    0.7658 C   0  0  0  0  0  0  0  0  0  0  0  0
    6.2562   -0.5324    1.5197 C   0  0  0  0  0  0  0  0  0  0  0  0
    6.2693   -0.5222    2.9843 C   0  0  0  0  0  0  0  0  0  0  0  0
    5.9563    0.6496    3.6746 C   0  0  0  0  0  0  0  0  0  0  0  0
    5.9520    0.6554    5.0710 C   0  0  0  0  0  0  0  0  0  0  0  0
    6.2516   -0.4971    5.7824 C   0  0  0  0  0  0  0  0  0  0  0  0
    6.5650   -1.6668    5.0700 C   0  0  0  0  0  0  0  0  0  0  0  0
    6.8413   -2.7204    5.8825 O   0  0  0  0  0  0  0  0  0  0  0  0
    7.1482   -3.9593    5.2577 C   0  0  0  0  0  0  0  0  0  0  0  0
    6.5786   -1.6958    3.6771 C   0  0  0  0  0  0  0  0  0  0  0  0
    5.0952   -0.1960    0.8138 C   0  0  0  0  0  0  0  0  0  0  0  0
    3.8215    0.1807    1.2400 N   0  0  0  0  0  0  0  0  0  0  0  0
    0.8654    0.5909   -1.0219 C   0  0  0  0  0  0  0  0  0  0  0  0
   -0.4722    0.9546   -1.0269 C   0  0  0  0  0  0  0  0  0  0  0  0
   -2.0724    4.1665    0.9708 C   0  0  0  0  0  0  0  0  0  0  0  0
   -2.5187    5.2390    1.7299 C   0  0  0  0  0  0  0  0  0  0  0  0
   -4.0038    5.0215    5.3623 C   0  0  0  0  0  0  0  0  0  0  0  0
   -3.0744    4.8504    6.1003 O   0  0  0  0  0  0  0  0  0  0  0  0
   -4.9432    4.0673    5.1573 O   0  0  0  0  0  0  0  0  0  0  0  0
   -4.3728    7.2196    2.6662 H   0  0  0  0  0  0  0  0  0  0  0  0
   -5.4768    3.9537    2.8409 H   0  0  0  0  0  0  0  0  0  0  0  0
   -4.6959    2.0284    1.4862 H   0  0  0  0  0  0  0  0  0  0  0  0
   -2.4443   -0.7673   -0.0583 H   0  0  0  0  0  0  0  0  0  0  0  0
   -4.0911   -2.1099   -1.3409 H   0  0  0  0  0  0  0  0  0  0  0  0
   -5.7496   -0.2119   -4.6614 H   0  0  0  0  0  0  0  0  0  0  0  0
   -7.4032   -1.5683   -5.9224 H   0  0  0  0  0  0  0  0  0  0  0  0
   -8.7355   -3.2836   -4.7887 H   0  0  0  0  0  0  0  0  0  0  0  0
   -8.6844   -5.4889   -3.5106 H   0  0  0  0  0  0  0  0  0  0  0  0
  -10.0808   -4.3683   -3.6523 H   0  0  0  0  0  0  0  0  0  0  0  0
   -9.9969   -5.4996   -2.2954 H   0  0  0  0  0  0  0  0  0  0  0  0
   -8.1408   -3.5095   -0.1293 H   0  0  0  0  0  0  0  0  0  0  0  0
   -7.2341   -4.8347   -0.9350 H   0  0  0  0  0  0  0  0  0  0  0  0
   -8.9356   -5.0607   -0.4326 H   0  0  0  0  0  0  0  0  0  0  0  0
   -6.7703   -2.3004   -1.0566 H   0  0  0  0  0  0  0  0  0  0  0  0
   -6.1014    1.4937   -2.5640 H   0  0  0  0  0  0  0  0  0  0  0  0
   -4.4492    2.8527   -1.3019 H   0  0  0  0  0  0  0  0  0  0  0  0
   -0.6847    2.2074    2.1528 H   0  0  0  0  0  0  0  0  0  0  0  0
    1.6984    1.5920    2.1351 H   0  0  0  0  0  0  0  0  0  0  0  0
    5.1506    1.3139   -3.0074 H   0  0  0  0  0  0  0  0  0  0  0  0
    5.1688    1.2874   -5.4882 H   0  0  0  0  0  0  0  0  0  0  0  0
    6.1764   -0.6459   -6.7104 H   0  0  0  0  0  0  0  0  0  0  0  0
    8.0585   -4.4303   -5.8769 H   0  0  0  0  0  0  0  0  0  0  0  0
    8.6264   -3.5313   -4.4237 H   0  0  0  0  0  0  0  0  0  0  0  0
    6.9905   -4.3049   -4.4324 H   0  0  0  0  0  0  0  0  0  0  0  0
    7.1530   -2.4916   -2.9311 H   0  0  0  0  0  0  0  0  0  0  0  0
    8.2488   -1.1352   -1.1809 H   0  0  0  0  0  0  0  0  0  0  0  0
    8.3013   -1.1279    1.2715 H   0  0  0  0  0  0  0  0  0  0  0  0
    5.7385    1.5622    3.1252 H   0  0  0  0  0  0  0  0  0  0  0  0
    5.7121    1.5749    5.6057 H   0  0  0  0  0  0  0  0  0  0  0  0
    6.2509   -0.5122    6.8687 H   0  0  0  0  0  0  0  0  0  0  0  0
    6.3034   -4.3161    4.6600 H   0  0  0  0  0  0  0  0  0  0  0  0
    7.3136   -4.6188    6.1206 H   0  0  0  0  0  0  0  0  0  0  0  0
    8.0596   -3.8788    4.6572 H   0  0  0  0  0  0  0  0  0  0  0  0
    6.8148   -2.5996    3.1260 H   0  0  0  0  0  0  0  0  0  0  0  0
    3.5224    0.2228    2.1885 H   0  0  0  0  0  0  0  0  0  0  0  0
    1.3190    0.1424   -1.9140 H   0  0  0  0  0  0  0  0  0  0  0  0
   -1.0782    0.7983   -1.9187 H   0  0  0  0  0  0  0  0  0  0  0  0
   -1.1260    4.2290    0.4350 H   0  0  0  0  0  0  0  0  0  0  0  0
   -1.9135    6.1435    1.7981 H   0  0  0  0  0  0  0  0  0  0  0  0
   -4.7690    3.2263    5.6551 H   0  0  0  0  0  0  0  0  0  0  0  0
  1  2  1  0  0  0  0
  2  3  1  0  0  0  0
  3  4  2  0  0  0  0
  4  5  1  0  0  0  0
  6  5  4  0  0  0  0
  7  6  4  0  0  0  0
  8  7  4  0  0  0  0
  8  9  1  0  0  0  0
  9 10  1  0  0  0  0
 11 10  4  0  0  0  0
 12 11  4  0  0  0  0
 13 12  4  0  0  0  0
 13 14  1  0  0  0  0
 15 14  4  0  0  0  0
 16 15  4  0  0  0  0
 17 16  4  0  0  0  0
 18 17  4  0  0  0  0
 18 19  1  0  0  0  0
 19 20  1  0  0  0  0
 19 21  1  0  0  0  0
 22 18  4  0  0  0  0
 23 13  4  0  0  0  0
 24 23  4  0  0  0  0
  9 25  1  0  0  0  0
 26 25  4  0  0  0  0
 27 26  4  0  0  0  0
 28 27  4  0  0  0  0
 28 29  1  0  0  0  0
 30 29  4  0  0  0  0
 31 30  4  0  0  0  0
 31 32  4  0  0  0  0
 32 33  1  0  0  0  0
 34 33  4  0  0  0  0
 35 34  4  0  0  0  0
 36 35  4  0  0  0  0
 37 36  4  0  0  0  0
 37 38  1  0  0  0  0
 38 39  1  0  0  0  0
 40 37  4  0  0  0  0
 32 41  4  0  0  0  0
 41 42  4  0  0  0  0
 42 43  4  0  0  0  0
 43 44  1  0  0  0  0
 45 44  4  0  0  0  0
 46 45  4  0  0  0  0
 47 46  4  0  0  0  0
 48 47  4  0  0  0  0
 48 49  1  0  0  0  0
 49 50  1  0  0  0  0
 51 48  4  0  0  0  0
 43 52  4  0  0  0  0
 53 52  4  0  0  0  0
 54 28  4  0  0  0  0
 55 54  4  0  0  0  0
 56  8  4  0  0  0  0
 57 56  4  0  0  0  0
  3 58  1  0  0  0  0
 58 59  2  0  0  0  0
 58 60  1  0  0  0  0
  5 57  4  0  0  0  0
 10 24  4  0  0  0  0
 25 55  4  0  0  0  0
 14 22  4  0  0  0  0
 29 53  4  0  0  0  0
 52 31  4  0  0  0  0
 33 40  4  0  0  0  0
 44 51  4  0  0  0  0
  4 61  1  0  0  0  0
  6 62  1  0  0  0  0
  7 63  1  0  0  0  0
 11 64  1  0  0  0  0
 12 65  1  0  0  0  0
 15 66  1  0  0  0  0
 16 67  1  0  0  0  0
 17 68  1  0  0  0  0
 20 69  1  0  0  0  0
 20 70  1  0  0  0  0
 20 71  1  0  0  0  0
 21 72  1  0  0  0  0
 21 73  1  0  0  0  0
 21 74  1  0  0  0  0
 22 75  1  0  0  0  0
 23 76  1  0  0  0  0
 24 77  1  0  0  0  0
 26 78  1  0  0  0  0
 27 79  1  0  0  0  0
 34 80  1  0  0  0  0
 35 81  1  0  0  0  0
 36 82  1  0  0  0  0
 39 83  1  0  0  0  0
 39 84  1  0  0  0  0
 39 85  1  0  0  0  0
 40 86  1  0  0  0  0
 41 87  1  0  0  0  0
 42 88  1  0  0  0  0
 45 89  1  0  0  0  0
 46 90  1  0  0  0  0
 47 91  1  0  0  0  0
 50 92  1  0  0  0  0
 50 93  1  0  0  0  0
 50 94  1  0  0  0  0
 51 95  1  0  0  0  0
 53 96  1  0  0  0  0
 54 97  1  0  0  0  0
 55 98  1  0  0  0  0
 56 99  1  0  0  0  0
 57100  1  0  0  0  0
 60101  1  0  0  0  0
M  CHG  2   1  -1   2   1
M  RAD  2   1   3   2   3
M  END
> <ID>
Row2

> <SMILE (InChI Code)>
InChI=1S/C51H41N5O4/c1-52-47(51(57)58)29-33-15-21-39(22-16-33)56(40-23-17-34(18-24-40)36-9-6-12-42(30-36)55(2)3)41-25-19-35(20-26-41)50-53-48-45(37-10-7-13-43(31-37)59-4)27-28-46(49(48)54-50)38-11-8-14-44(32-38)60-5/h6-32H,2-5H3,(H,53,54)(H,57,58)/b47-29+

> <ID_2>
SFJBBPHIJJAPSG-VQOPBWDXSA-N

> <Converged>
true

> <Energy>
188.17626518348075

> <FINAL HEAT OF FORMATION (KCAL/MOL)>
92.91076

> <COSMO AREA (ANGSTROMS)>
800.24

> <COSMO VOLUME (ANGSTROMS)>
948.98

> <GRADIENT NORM>
0.25647

> <IONIZATION POTENTIAL (EV)>
8.095962

> <HOMO (EV)>
-8.096

> <LUMO (EV)>
-0.898

$$$$

  Mrv2503 06262623193D            

 97104  0  0  0  0            999 V2000
    6.2594    2.8740   -9.1066 C   0  5  0  0  0  0  0  0  0  0  0  0
    5.8980    2.5357   -8.0293 N   0  3  0  0  0  0  0  0  0  0  0  0
    5.4860    2.1527   -6.7732 C   0  0  0  0  0  0  0  0  0  0  0  0
    4.2688    1.6414   -6.5179 C   0  0  0  0  0  0  0  0  0  0  0  0
    3.8299    1.2293   -5.1882 C   0  0  0  0  0  0  0  0  0  0  0  0
    2.7432    1.8786   -4.5933 C   0  0  0  0  0  0  0  0  0  0  0  0
    2.3194    1.5121   -3.3232 C   0  0  0  0  0  0  0  0  0  0  0  0
    2.9817    0.4765   -2.6442 C   0  0  0  0  0  0  0  0  0  0  0  0
    2.5676    0.1057   -1.3405 N   0  0  0  0  0  0  0  0  0  0  0  0
    3.5548   -0.1763   -0.3609 C   0  0  0  0  0  0  0  0  0  0  0  0
    4.7303    0.5895   -0.3191 C   0  0  0  0  0  0  0  0  0  0  0  0
    5.6973    0.3065    0.6367 C   0  0  0  0  0  0  0  0  0  0  0  0
    5.5038   -0.7311    1.5531 C   0  0  0  0  0  0  0  0  0  0  0  0
    6.5284   -1.0194    2.5643 C   0  0  0  0  0  0  0  0  0  0  0  0
    7.0418   -2.3102    2.6922 C   0  0  0  0  0  0  0  0  0  0  0  0
    8.0194   -2.5812    3.6524 C   0  0  0  0  0  0  0  0  0  0  0  0
    8.4877   -1.5769    4.4867 C   0  0  0  0  0  0  0  0  0  0  0  0
    7.9583   -0.2832    4.3451 C   0  0  0  0  0  0  0  0  0  0  0  0
    8.5003    0.6052    5.2198 O   0  0  0  0  0  0  0  0  0  0  0  0
    8.0306    1.9448    5.1597 C   0  0  0  0  0  0  0  0  0  0  0  0
    6.9839    0.0103    3.3944 C   0  0  0  0  0  0  0  0  0  0  0  0
    4.3322   -1.4918    1.5050 C   0  0  0  0  0  0  0  0  0  0  0  0
    3.3571   -1.2223    0.5530 C   0  0  0  0  0  0  0  0  0  0  0  0
    1.1975    0.0451   -1.0181 C   0  0  0  0  0  0  0  0  0  0  0  0
    0.7602    0.3569    0.2814 C   0  0  0  0  0  0  0  0  0  0  0  0
   -0.5896    0.2810    0.5885 C   0  0  0  0  0  0  0  0  0  0  0  0
   -1.5201   -0.1046   -0.3870 C   0  0  0  0  0  0  0  0  0  0  0  0
   -2.9239   -0.1729   -0.0190 C   0  0  0  0  0  0  0  0  0  0  0  0
   -3.4767    0.3959    1.0628 N   0  0  0  0  0  0  0  0  0  0  0  0
   -4.8371    0.0858    1.0411 C   0  0  0  0  0  0  0  0  0  0  0  0
   -5.8775    0.4118    1.9268 C   0  0  0  0  0  0  0  0  0  0  0  0
   -5.6365    1.2085    3.1335 C   0  0  0  0  0  0  0  0  0  0  0  0
   -6.1929    0.8000    4.3564 C   0  0  0  0  0  0  0  0  0  0  0  0
   -5.9804    1.5534    5.5034 C   0  0  0  0  0  0  0  0  0  0  0  0
   -5.2214    2.7244    5.4595 C   0  0  0  0  0  0  0  0  0  0  0  0
   -4.6732    3.1130    4.2393 C   0  0  0  0  0  0  0  0  0  0  0  0
   -3.9157    4.2246    4.0289 O   0  0  0  0  0  0  0  0  0  0  0  0
   -3.6367    5.0415    5.1561 C   0  0  0  0  0  0  0  0  0  0  0  0
   -4.8668    2.3639    3.0678 C   0  0  0  0  0  0  0  0  0  0  0  0
   -7.1492   -0.0537    1.6147 C   0  0  0  0  0  0  0  0  0  0  0  0
   -7.4056   -0.8301    0.4695 C   0  0  0  0  0  0  0  0  0  0  0  0
   -6.3977   -1.1735   -0.4194 C   0  0  0  0  0  0  0  0  0  0  0  0
   -6.6466   -1.9784   -1.6173 C   0  0  0  0  0  0  0  0  0  0  0  0
   -6.3196   -1.4717   -2.8761 C   0  0  0  0  0  0  0  0  0  0  0  0
   -6.5410   -2.2453   -4.0172 C   0  0  0  0  0  0  0  0  0  0  0  0
   -7.0801   -3.5191   -3.9130 C   0  0  0  0  0  0  0  0  0  0  0  0
   -7.4058   -4.0108   -2.6378 C   0  0  0  0  0  0  0  0  0  0  0  0
   -7.9279   -5.2647   -2.6749 O   0  0  0  0  0  0  0  0  0  0  0  0
   -8.2861   -5.8559   -1.4333 C   0  0  0  0  0  0  0  0  0  0  0  0
   -7.1967   -3.2561   -1.4853 C   0  0  0  0  0  0  0  0  0  0  0  0
   -5.1106   -0.7100   -0.1226 C   0  0  0  0  0  0  0  0  0  0  0  0
   -3.8903   -0.8647   -0.7805 N   0  0  0  0  0  0  0  0  0  0  0  0
   -1.0839   -0.3976   -1.6831 C   0  0  0  0  0  0  0  0  0  0  0  0
    0.2646   -0.3303   -2.0017 C   0  0  0  0  0  0  0  0  0  0  0  0
    4.0595   -0.1908   -3.2465 C   0  0  0  0  0  0  0  0  0  0  0  0
    4.4772    0.1890   -4.5153 C   0  0  0  0  0  0  0  0  0  0  0  0
    6.5073    2.4095   -5.7089 C   0  0  0  0  0  0  0  0  0  0  0  0
    6.8547    3.4654   -5.2594 O   0  0  0  0  0  0  0  0  0  0  0  0
    7.0378    1.2381   -5.2823 O   0  0  0  0  0  0  0  0  0  0  0  0
    3.5292    1.5217   -7.3167 H   0  0  0  0  0  0  0  0  0  0  0  0
    2.2368    2.6873   -5.1211 H   0  0  0  0  0  0  0  0  0  0  0  0
    1.4860    2.0308   -2.8503 H   0  0  0  0  0  0  0  0  0  0  0  0
    4.8795    1.4041   -1.0266 H   0  0  0  0  0  0  0  0  0  0  0  0
    6.6143    0.8958    0.6721 H   0  0  0  0  0  0  0  0  0  0  0  0
    6.6876   -3.1036    2.0394 H   0  0  0  0  0  0  0  0  0  0  0  0
    8.4175   -3.5918    3.7460 H   0  0  0  0  0  0  0  0  0  0  0  0
    9.2472   -1.7688    5.2392 H   0  0  0  0  0  0  0  0  0  0  0  0
    8.6172    2.4315    5.9510 H   0  0  0  0  0  0  0  0  0  0  0  0
    6.9618    1.9952    5.3902 H   0  0  0  0  0  0  0  0  0  0  0  0
    8.2538    2.3940    4.1870 H   0  0  0  0  0  0  0  0  0  0  0  0
    6.5697    1.0072    3.2922 H   0  0  0  0  0  0  0  0  0  0  0  0
    4.1826   -2.3008    2.2213 H   0  0  0  0  0  0  0  0  0  0  0  0
    2.4488   -1.8222    0.5127 H   0  0  0  0  0  0  0  0  0  0  0  0
    1.4762    0.6701    1.0405 H   0  0  0  0  0  0  0  0  0  0  0  0
   -0.9420    0.5330    1.5967 H   0  0  0  0  0  0  0  0  0  0  0  0
   -6.7775   -0.1147    4.4039 H   0  0  0  0  0  0  0  0  0  0  0  0
   -6.4088    1.2303    6.4511 H   0  0  0  0  0  0  0  0  0  0  0  0
   -5.0686    3.3029    6.3617 H   0  0  0  0  0  0  0  0  0  0  0  0
   -3.0178    5.8366    4.7184 H   0  0  0  0  0  0  0  0  0  0  0  0
   -3.0699    4.4882    5.9109 H   0  0  0  0  0  0  0  0  0  0  0  0
   -4.5570    5.4604    5.5739 H   0  0  0  0  0  0  0  0  0  0  0  0
   -4.3992    2.6801    2.1345 H   0  0  0  0  0  0  0  0  0  0  0  0
   -7.9838    0.1937    2.2716 H   0  0  0  0  0  0  0  0  0  0  0  0
   -8.4262   -1.1611    0.2759 H   0  0  0  0  0  0  0  0  0  0  0  0
   -5.9155   -0.4666   -2.9691 H   0  0  0  0  0  0  0  0  0  0  0  0
   -6.2899   -1.8427   -4.9987 H   0  0  0  0  0  0  0  0  0  0  0  0
   -7.2568   -4.1364   -4.7891 H   0  0  0  0  0  0  0  0  0  0  0  0
   -7.4096   -5.9714   -0.7876 H   0  0  0  0  0  0  0  0  0  0  0  0
   -9.0760   -5.2807   -0.9403 H   0  0  0  0  0  0  0  0  0  0  0  0
   -8.6648   -6.8387   -1.7458 H   0  0  0  0  0  0  0  0  0  0  0  0
   -7.4434   -3.6366   -0.4998 H   0  0  0  0  0  0  0  0  0  0  0  0
   -3.7453   -1.4119   -1.5989 H   0  0  0  0  0  0  0  0  0  0  0  0
   -1.7959   -0.6769   -2.4589 H   0  0  0  0  0  0  0  0  0  0  0  0
    0.6007   -0.5771   -3.0073 H   0  0  0  0  0  0  0  0  0  0  0  0
    4.5619   -1.0034   -2.7231 H   0  0  0  0  0  0  0  0  0  0  0  0
    5.3132   -0.3300   -4.9911 H   0  0  0  0  0  0  0  0  0  0  0  0
    7.7130    1.3469   -4.5625 H   0  0  0  0  0  0  0  0  0  0  0  0
  1  2  1  0  0  0  0
  2  3  1  0  0  0  0
  3  4  2  0  0  0  0
  4  5  1  0  0  0  0
  6  5  4  0  0  0  0
  7  6  4  0  0  0  0
  8  7  4  0  0  0  0
  8  9  1  0  0  0  0
  9 10  1  0  0  0  0
 11 10  4  0  0  0  0
 12 11  4  0  0  0  0
 13 12  4  0  0  0  0
 13 14  1  0  0  0  0
 15 14  4  0  0  0  0
 16 15  4  0  0  0  0
 17 16  4  0  0  0  0
 18 17  4  0  0  0  0
 18 19  1  0  0  0  0
 19 20  1  0  0  0  0
 21 18  4  0  0  0  0
 22 13  4  0  0  0  0
 23 22  4  0  0  0  0
  9 24  1  0  0  0  0
 25 24  4  0  0  0  0
 26 25  4  0  0  0  0
 27 26  4  0  0  0  0
 27 28  1  0  0  0  0
 29 28  4  0  0  0  0
 30 29  4  0  0  0  0
 30 31  4  0  0  0  0
 31 32  1  0  0  0  0
 33 32  4  0  0  0  0
 34 33  4  0  0  0  0
 35 34  4  0  0  0  0
 36 35  4  0  0  0  0
 36 37  1  0  0  0  0
 37 38  1  0  0  0  0
 39 36  4  0  0  0  0
 31 40  4  0  0  0  0
 40 41  4  0  0  0  0
 41 42  4  0  0  0  0
 42 43  1  0  0  0  0
 44 43  4  0  0  0  0
 45 44  4  0  0  0  0
 46 45  4  0  0  0  0
 47 46  4  0  0  0  0
 47 48  1  0  0  0  0
 48 49  1  0  0  0  0
 50 47  4  0  0  0  0
 42 51  4  0  0  0  0
 52 51  4  0  0  0  0
 53 27  4  0  0  0  0
 54 53  4  0  0  0  0
 55  8  4  0  0  0  0
 56 55  4  0  0  0  0
  3 57  1  0  0  0  0
 57 58  2  0  0  0  0
 57 59  1  0  0  0  0
  5 56  4  0  0  0  0
 10 23  4  0  0  0  0
 24 54  4  0  0  0  0
 14 21  4  0  0  0  0
 28 52  4  0  0  0  0
 51 30  4  0  0  0  0
 32 39  4  0  0  0  0
 43 50  4  0  0  0  0
  4 60  1  0  0  0  0
  6 61  1  0  0  0  0
  7 62  1  0  0  0  0
 11 63  1  0  0  0  0
 12 64  1  0  0  0  0
 15 65  1  0  0  0  0
 16 66  1  0  0  0  0
 17 67  1  0  0  0  0
 20 68  1  0  0  0  0
 20 69  1  0  0  0  0
 20 70  1  0  0  0  0
 21 71  1  0  0  0  0
 22 72  1  0  0  0  0
 23 73  1  0  0  0  0
 25 74  1  0  0  0  0
 26 75  1  0  0  0  0
 33 76  1  0  0  0  0
 34 77  1  0  0  0  0
 35 78  1  0  0  0  0
 38 79  1  0  0  0  0
 38 80  1  0  0  0  0
 38 81  1  0  0  0  0
 39 82  1  0  0  0  0
 40 83  1  0  0  0  0
 41 84  1  0  0  0  0
 44 85  1  0  0  0  0
 45 86  1  0  0  0  0
 46 87  1  0  0  0  0
 49 88  1  0  0  0  0
 49 89  1  0  0  0  0
 49 90  1  0  0  0  0
 50 91  1  0  0  0  0
 52 92  1  0  0  0  0
 53 93  1  0  0  0  0
 54 94  1  0  0  0  0
 55 95  1  0  0  0  0
 56 96  1  0  0  0  0
 59 97  1  0  0  0  0
M  CHG  2   1  -1   2   1
M  RAD  2   1   3   2   3
M  END
> <ID>
Row3

> <SMILE (InChI Code)>
InChI=1S/C50H38N4O5/c1-51-46(50(55)56)28-32-14-20-38(21-15-32)54(39-22-16-33(17-23-39)35-8-5-11-41(29-35)57-2)40-24-18-34(19-25-40)49-52-47-44(36-9-6-12-42(30-36)58-3)26-27-45(48(47)53-49)37-10-7-13-43(31-37)59-4/h5-31H,2-4H3,(H,52,53)(H,55,56)/b46-28+

> <ID_2>
RHPWUQADFVJCBO-HOKWUGLCSA-N

> <Converged>
true

> <Energy>
182.40389212919524

> <FINAL HEAT OF FORMATION (KCAL/MOL)>
53.48094

> <COSMO AREA (ANGSTROMS)>
780.49

> <COSMO VOLUME (ANGSTROMS)>
923.63

> <GRADIENT NORM>
0.41601

> <IONIZATION POTENTIAL (EV)>
8.130767

> <HOMO (EV)>
-8.131

> <LUMO (EV)>
-0.926

$$$$

  Mrv2503 06262623193D            

 21 22  0  0  0  0            999 V2000
    3.7265    1.9373   -0.8850 C   0  5  0  0  0  0  0  0  0  0  0  0
    2.8924    1.1099   -0.7484 N   0  3  0  0  0  0  0  0  0  0  0  0
    1.9118    0.1481   -0.5851 C   0  0  0  0  0  0  0  0  0  0  0  0
    2.2012   -1.1678   -0.8841 C   0  0  0  0  0  0  0  0  0  0  0  0
    1.2078   -2.1557   -0.7157 C   0  0  0  0  0  0  0  0  0  0  0  0
   -0.0419   -1.8148   -0.2641 C   0  0  0  0  0  0  0  0  0  0  0  0
   -0.3681   -0.4671    0.0420 C   0  0  0  0  0  0  0  0  0  0  0  0
   -1.6729   -0.0755    0.5106 C   0  0  0  0  0  0  0  0  0  0  0  0
   -2.6609   -1.0319    0.7181 N   0  0  0  0  0  0  0  0  0  0  0  0
   -1.9407    1.2533    0.8153 C   0  0  0  0  0  0  0  0  0  0  0  0
   -0.9380    2.2274    0.6671 C   0  0  0  0  0  0  0  0  0  0  0  0
    0.3117    1.8861    0.2111 C   0  0  0  0  0  0  0  0  0  0  0  0
    0.6131    0.5382   -0.1073 C   0  0  0  0  0  0  0  0  0  0  0  0
    3.1873   -1.4543   -1.2462 H   0  0  0  0  0  0  0  0  0  0  0  0
    1.4537   -3.1914   -0.9486 H   0  0  0  0  0  0  0  0  0  0  0  0
   -0.7904   -2.5936   -0.1283 H   0  0  0  0  0  0  0  0  0  0  0  0
   -2.5755   -1.9308    0.2959 H   0  0  0  0  0  0  0  0  0  0  0  0
   -3.5970   -0.7242    0.8793 H   0  0  0  0  0  0  0  0  0  0  0  0
   -2.9198    1.5534    1.1748 H   0  0  0  0  0  0  0  0  0  0  0  0
   -1.1706    3.2635    0.9174 H   0  0  0  0  0  0  0  0  0  0  0  0
    1.0806    2.6456    0.0922 H   0  0  0  0  0  0  0  0  0  0  0  0
  1  2  1  0  0  0  0
  2  3  1  0  0  0  0
  4  3  4  0  0  0  0
  5  4  4  0  0  0  0
  6  5  4  0  0  0  0
  7  6  4  0  0  0  0
  7  8  4  0  0  0  0
  8  9  1  0  0  0  0
  8 10  4  0  0  0  0
 10 11  4  0  0  0  0
 11 12  4  0  0  0  0
 12 13  4  0  0  0  0
  3 13  4  0  0  0  0
 13  7  4  0  0  0  0
  4 14  1  0  0  0  0
  5 15  1  0  0  0  0
  6 16  1  0  0  0  0
  9 17  1  0  0  0  0
  9 18  1  0  0  0  0
 10 19  1  0  0  0  0
 11 20  1  0  0  0  0
 12 21  1  0  0  0  0
M  CHG  2   1  -1   2   1
M  RAD  2   1   3   2   3
M  END
> <ID>
Row4

> <SMILE (InChI Code)>
InChI=1S/C11H8N2/c1-13-11-7-3-4-8-9(11)5-2-6-10(8)12/h2-7H,12H2

> <ID_2>
ZGMMMIZCNKPHTB-UHFFFAOYSA-N

> <Converged>
true

> <Energy>
30.033219433220108

> <FINAL HEAT OF FORMATION (KCAL/MOL)>
86.45834

> <COSMO AREA (ANGSTROMS)>
202.51

> <COSMO VOLUME (ANGSTROMS)>
209.27

> <GRADIENT NORM>
0.06321

> <IONIZATION POTENTIAL (EV)>
8.199105

> <HOMO (EV)>
-8.199

> <LUMO (EV)>
-0.672

$$$$

  Mrv2503 06262623193D            

 63 66  0  0  0  0            999 V2000
   -2.6994   -2.9598   -4.4187 H   0  0  0  0  0  0  0  0  0  0  0  0
   -2.9630   -2.1196   -3.9452 N   0  3  0  0  0  0  0  0  0  0  0  0
   -2.4294   -1.8133   -2.7326 C   0  0  0  0  0  0  0  0  0  0  0  0
   -1.5712   -2.7916   -2.1246 C   0  0  0  0  0  0  0  0  0  0  0  0
   -0.9716   -2.5493   -0.9207 C   0  0  0  0  0  0  0  0  0  0  0  0
   -1.2531   -1.3594   -0.2006 C   0  0  0  0  0  0  0  0  0  0  0  0
   -0.5960   -0.9798    1.0081 C   0  0  0  0  0  0  0  0  0  0  0  0
    0.5926   -1.7232    1.4471 C   0  0  0  0  0  0  0  0  0  0  0  0
    0.5948   -2.4222    2.6545 C   0  0  0  0  0  0  0  0  0  0  0  0
    1.7508   -3.0816    3.0698 C   0  0  0  0  0  0  0  0  0  0  0  0
    2.9048   -3.0397    2.2893 C   0  0  0  0  0  0  0  0  0  0  0  0
    2.9049   -2.3523    1.0764 C   0  0  0  0  0  0  0  0  0  0  0  0
    1.7468   -1.7039    0.6578 C   0  0  0  0  0  0  0  0  0  0  0  0
    1.7362   -1.0695   -0.6930 C   0  0  0  0  0  0  0  0  0  0  0  0
    1.6118   -1.7492   -1.6981 O   0  0  0  0  0  0  0  0  0  0  0  0
    1.8475    0.2944   -0.7910 N   0  0  0  0  0  0  0  0  0  0  0  0
    1.9501    1.1913    0.3563 C   0  0  0  0  0  0  0  0  0  0  0  0
    1.8938    0.8977   -2.1284 C   0  0  1  0  0  0  0  0  0  0  0  0
    3.2259    0.5943   -2.8425 C   0  0  2  0  0  0  0  0  0  0  0  0
    4.4221    1.3128   -2.2167 C   0  0  1  0  0  0  0  0  0  0  0  0
    4.8986    0.5949   -0.9942 C   0  0  0  0  0  0  0  0  0  0  0  0
    5.0914   -0.5767   -0.8081 O   0  0  0  0  0  0  0  0  0  0  0  0
    5.1537    1.4927    0.0011 O   0  0  0  0  0  0  0  0  0  0  0  0
   -1.0368    0.1238    1.6885 C   0  0  0  0  0  0  0  0  0  0  0  0
   -0.4388    0.6440    2.8995 C   0  0  0  0  0  0  0  0  0  0  0  0
   -1.0229    1.6384    3.5895 C   0  0  0  0  0  0  0  0  0  0  0  0
   -2.3255    2.2137    3.1902 C   0  0  0  0  0  0  0  0  0  0  0  0
   -3.0116    3.0109    3.9424 N   0  0  0  0  0  0  0  0  0  0  0  0
   -2.8410    1.8223    1.8811 C   0  0  0  0  0  0  0  0  0  0  0  0
   -4.2913    2.6108    1.2469 S   0  0  1  0  0  0  0  0  0  0  0  0
   -4.8909    1.7180    0.2874 O   0  0  0  0  0  0  0  0  0  0  0  0
   -5.3013    2.6067    2.5477 O   0  0  0  0  0  0  0  0  0  0  0  0
   -3.9981    3.9837    0.9348 O   0  5  0  0  0  0  0  0  0  0  0  0
   -2.1771    0.8587    1.1928 C   0  0  0  0  0  0  0  0  0  0  0  0
   -2.6280    0.6152   -0.0793 O   0  0  0  0  0  0  0  0  0  0  0  0
   -2.1815   -0.4691   -0.7617 C   0  0  0  0  0  0  0  0  0  0  0  0
   -2.7117   -0.6035   -2.0504 C   0  0  0  0  0  0  0  0  0  0  0  0
   -3.5943    0.7040   -2.7861 S   0  0  2  0  0  0  0  0  0  0  0  0
   -3.1044    1.9879   -2.3749 O   0  0  0  0  0  0  0  0  0  0  0  0
   -4.9729    0.3828   -3.0040 O   0  0  0  0  0  0  0  0  0  0  0  0
   -2.9213    0.5220   -4.3316 O   0  0  0  0  0  0  0  0  0  0  0  0
   -3.4464   -1.4328   -4.5070 H   0  0  0  0  0  0  0  0  0  0  0  0
   -1.3642   -3.7149   -2.6600 H   0  0  0  0  0  0  0  0  0  0  0  0
   -0.2618   -3.2682   -0.4961 H   0  0  0  0  0  0  0  0  0  0  0  0
   -0.3069   -2.4538    8.2664 H   0  0  0  0  0  0  0  0  0  0  0  0
    1.7501   -3.6314    4.0104 H   0  0  0  0  0  0  0  0  0  0  0  0
    3.8082   -3.5511    2.6206 H   0  0  0  0  0  0  0  0  0  0  0  0
    3.8025   -2.3249    0.4488 H   0  0  0  0  0  0  0  0  0  0  0  0
    1.0019    1.7460    0.4980 H   0  0  0  0  0  0  0  0  0  0  0  0
    2.1622    0.6410    1.2884 H   0  0  0  0  0  0  0  0  0  0  0  0
    2.7673    1.9244    0.2133 H   0  0  0  0  0  0  0  0  0  0  0  0
    1.0526    0.4780   -2.7369 H   0  0  0  0  0  0  0  0  0  0  0  0
    1.7190    1.9923   -2.0524 H   0  0  0  0  0  0  0  0  0  0  0  0
    3.1331    0.8783   -3.9089 H   0  0  0  0  0  0  0  0  0  0  0  0
    3.3957   -0.5084   -2.8478 H   0  0  0  0  0  0  0  0  0  0  0  0
    5.2643    1.3600   -2.9442 H   0  0  0  0  0  0  0  0  0  0  0  0
    4.1731    2.3717   -1.9846 H   0  0  0  0  0  0  0  0  0  0  0  0
    5.5139    1.0864    0.8245 H   0  0  0  0  0  0  0  0  0  0  0  0
    0.5031    0.1970    3.2240 H   0  0  0  0  0  0  0  0  0  0  0  0
   -0.5708    2.0511    4.4878 H   0  0  0  0  0  0  0  0  0  0  0  0
   -2.6614    3.3032    4.8360 H   0  0  0  0  0  0  0  0  0  0  0  0
   -4.9534    3.0861    3.3311 H   0  0  0  0  0  0  0  0  0  0  0  0
   -2.8175    1.3121   -4.8610 H   0  0  0  0  0  0  0  0  0  0  0  0
  1  2  1  0  0  0  0
  2  3  2  0  0  0  0
  4  3  4  0  0  0  0
  5  4  4  0  0  0  0
  6  5  4  0  0  0  0
  6  7  4  0  0  0  0
  7  8  1  0  0  0  0
  9  8  4  0  0  0  0
 10  9  4  0  0  0  0
 11 10  4  0  0  0  0
 12 11  4  0  0  0  0
 13 12  4  0  0  0  0
 13 14  1  0  0  0  0
 14 15  2  0  0  0  0
 14 16  1  0  0  0  0
 16 17  1  0  0  0  0
 16 18  1  0  0  0  0
 18 19  1  0  0  0  0
 19 20  1  0  0  0  0
 20 21  1  0  0  0  0
 21 22  2  0  0  0  0
 21 23  1  0  0  0  0
  7 24  4  0  0  0  0
 25 24  4  0  0  0  0
 26 25  4  0  0  0  0
 27 26  4  0  0  0  0
 27 28  1  0  0  0  0
 29 27  4  0  0  0  0
 29 30  1  0  0  0  0
 30 31  2  0  0  0  0
 30 32  2  0  0  0  0
 30 33  1  0  0  0  0
 34 29  4  0  0  0  0
 34 35  4  0  0  0  0
 35 36  4  0  0  0  0
 37 36  4  0  0  0  0
 37 38  1  0  0  0  0
 38 39  2  0  0  0  0
 38 40  2  0  0  0  0
 38 41  1  0  0  0  0
  3 37  4  0  0  0  0
 36  6  4  0  0  0  0
  8 13  4  0  0  0  0
 24 34  4  0  0  0  0
  2 42  1  0  0  0  0
  4 43  1  0  0  0  0
  5 44  1  0  0  0  0
  9 45  1  0  0  0  0
 10 46  1  0  0  0  0
 11 47  1  0  0  0  0
 12 48  1  0  0  0  0
 17 49  1  0  0  0  0
 17 50  1  0  0  0  0
 17 51  1  0  0  0  0
 18 52  1  0  0  0  0
 18 53  1  0  0  0  0
 19 54  1  0  0  0  0
 19 55  1  0  0  0  0
 20 56  1  0  0  0  0
 20 57  1  0  0  0  0
 23 58  1  0  0  0  0
 25 59  1  0  0  0  0
 26 60  1  0  0  0  0
 28 61  1  0  0  0  0
 28 62  1  0  0  0  0
 41 63  1  0  0  0  0
M  CHG  2   2   1  33  -1
M  END
> <ID>
Row6

> <SMILE (InChI Code)>
InChI=1S/C25H23N3O10S2/c1-28(12-4-7-19(29)30)25(31)14-6-3-2-5-13(14)20-15-8-10-17(26)23(39(32,33)34)21(15)38-22-16(20)9-11-18(27)24(22)40(35,36)37/h2-3,5-6,8-11,26H,4,7,12,27H2,1H3,(H,29,30)(H,32,33,34)(H,35,36,37)

> <ID_2>
TVVHCPSDYUUHMH-UHFFFAOYSA-N

> <Converged>
true

> <Energy>
93.71995336666433

> <FINAL HEAT OF FORMATION (KCAL/MOL)>
-334.62994

> <COSMO AREA (ANGSTROMS)>
451.24

> <COSMO VOLUME (ANGSTROMS)>
614.84

> <GRADIENT NORM>
0.08993

> <IONIZATION POTENTIAL (EV)>
8.699086

> <HOMO (EV)>
-8.699

> <LUMO (EV)>
-1.802

$$$$

  Mrv2503 06262623193D            

 28 31  0  0  1  0            999 V2000
    4.4165    0.6810    2.8296 N   0  5  0  0  0  0  0  0  0  0  0  0
    4.3590    0.4523    1.7176 N   0  3  0  0  0  0  0  0  0  0  0  0
    4.4092    0.4307    0.4746 N   0  0  0  0  0  0  0  0  0  0  0  0
    3.8608   -0.7031   -0.2755 C   0  0  1  0  0  0  0  0  0  0  0  0
    2.3797   -0.8930   -0.0864 C   0  0  0  0  0  0  0  0  0  0  0  0
    1.8873   -2.1232    0.3489 C   0  0  0  0  0  0  0  0  0  0  0  0
    0.5161   -2.3324    0.5239 C   0  0  0  0  0  0  0  0  0  0  0  0
   -0.3493   -1.2889    0.2585 C   0  0  0  0  0  0  0  0  0  0  0  0
    0.1620   -0.0081   -0.1913 C   0  0  0  0  0  0  0  0  0  0  0  0
    1.5179    0.1769   -0.3628 C   0  0  0  0  0  0  0  0  0  0  0  0
   -0.9619    0.9197   -0.3956 C   0  0  0  0  0  0  0  0  0  0  0  0
   -1.2768    2.1993   -0.7717 C   0  0  0  0  0  0  0  0  0  0  0  0
   -2.6569    2.5856   -0.7817 C   0  0  0  0  0  0  0  0  0  0  0  0
   -3.6995    1.7498   -0.4340 C   0  0  0  0  0  0  0  0  0  0  0  0
   -3.4154    0.4184   -0.0379 C   0  0  0  0  0  0  0  0  0  0  0  0
   -3.9713   -0.8241    0.4037 C   0  0  0  0  0  0  0  0  0  0  0  0
   -2.9887   -1.7636    0.6225 N   0  0  0  0  0  0  0  0  0  0  0  0
   -1.7961   -1.1882    0.3409 C   0  0  0  0  0  0  0  0  0  0  0  0
   -2.0592    0.1316   -0.0606 N   0  0  0  0  0  0  0  0  0  0  0  0
    4.0821   -0.4378   -1.3466 H   0  0  0  0  0  0  0  0  0  0  0  0
    4.4290   -1.6400   -0.0712 H   0  0  0  0  0  0  0  0  0  0  0  0
    2.5753   -2.9430    0.5578 H   0  0  0  0  0  0  0  0  0  0  0  0
    0.1329   -3.2957    0.8631 H   0  0  0  0  0  0  0  0  0  0  0  0
    1.9182    1.1344   -0.6999 H   0  0  0  0  0  0  0  0  0  0  0  0
   -0.5137    2.9192   -1.0572 H   0  0  0  0  0  0  0  0  0  0  0  0
   -2.8771    3.6113   -1.0856 H   0  0  0  0  0  0  0  0  0  0  0  0
   -4.7339    2.0878   -0.4553 H   0  0  0  0  0  0  0  0  0  0  0  0
   -5.0053   -1.0612    0.5646 H   0  0  0  0  0  0  0  0  0  0  0  0
  1  2  2  0  0  0  0
  2  3  2  0  0  0  0
  3  4  1  0  0  0  0
  4  5  1  0  0  0  0
  6  5  4  0  0  0  0
  7  6  4  0  0  0  0
  8  7  4  0  0  0  0
  8  9  4  0  0  0  0
 10  9  4  0  0  0  0
  9 11  4  0  0  0  0
 12 11  4  0  0  0  0
 13 12  4  0  0  0  0
 14 13  4  0  0  0  0
 15 14  4  0  0  0  0
 15 16  4  0  0  0  0
 16 17  4  0  0  0  0
 17 18  4  0  0  0  0
 18 19  4  0  0  0  0
  5 10  4  0  0  0  0
 11 19  4  0  0  0  0
 18  8  4  0  0  0  0
 19 15  4  0  0  0  0
  4 20  1  0  0  0  0
  4 21  1  0  0  0  0
  6 22  1  0  0  0  0
  7 23  1  0  0  0  0
 10 24  1  0  0  0  0
 12 25  1  0  0  0  0
 13 26  1  0  0  0  0
 14 27  1  0  0  0  0
 16 28  1  0  0  0  0
M  CHG  2   1  -1   2   1
M  END
> <ID>
Row8

> <SMILE (InChI Code)>
InChI=1S/C14H9N5/c15-18-17-7-9-4-5-11-12(6-9)13-3-1-2-10-8-16-14(11)19(10)13/h1-6,8H,7H2

> <ID_2>
NKLMKRFDMVLYSU-UHFFFAOYSA-N

> <Converged>
true

> <Energy>
148.25626412910344

> <FINAL HEAT OF FORMATION (KCAL/MOL)>
185.51964

> <COSMO AREA (ANGSTROMS)>
264.85

> <COSMO VOLUME (ANGSTROMS)>
283.09

> <GRADIENT NORM>
0.06402

> <IONIZATION POTENTIAL (EV)>
8.578018

> <HOMO (EV)>
-8.578

> <LUMO (EV)>
-1.502

$$$$

  Mrv2503 06262623193D            

 27 29  0  0  0  0            999 V2000
   -4.3041   -2.1797   -0.1474 N   0  5  0  0  0  0  0  0  0  0  0  0
   -3.4838   -1.1499   -0.1004 C   0  0  0  0  0  0  0  0  0  0  0  0
   -4.0289    0.1816   -0.0417 C   0  0  0  0  0  0  0  0  0  0  0  0
   -3.1890    1.2756    0.0082 C   0  0  0  0  0  0  0  0  0  0  0  0
   -3.7373    2.5652    0.0651 N   0  0  0  0  0  0  0  0  0  0  0  0
   -1.7803    1.1528    0.0044 C   0  0  0  0  0  0  0  0  0  0  0  0
   -1.2384   -0.1357   -0.0524 C   0  0  0  0  0  0  0  0  0  0  0  0
    0.2173   -0.2475   -0.0556 C   0  0  0  0  0  0  0  0  0  0  0  0
    1.0841    0.7265   -0.0111 N   0  0  0  0  0  0  0  0  0  0  0  0
    2.4178    0.2975   -0.0286 C   0  0  0  0  0  0  0  0  0  0  0  0
    3.5202    1.1573    0.0111 C   0  0  0  0  0  0  0  0  0  0  0  0
    4.7926    0.6016   -0.0121 C   0  0  0  0  0  0  0  0  0  0  0  0
    4.9743   -0.7868   -0.0738 C   0  0  0  0  0  0  0  0  0  0  0  0
    3.8828   -1.6500   -0.1137 C   0  0  0  0  0  0  0  0  0  0  0  0
    2.6061   -1.1078   -0.0911 C   0  0  0  0  0  0  0  0  0  0  0  0
    1.0464   -1.8959   -0.1281 S   0  0  0  0  0  0  0  0  0  0  0  0
   -2.0324   -1.2615   -0.1036 C   0  0  0  0  0  0  0  0  0  0  0  0
   -3.8893   -3.0914   -0.1876 H   0  0  0  0  0  0  0  0  0  0  0  0
   -5.1025    0.2740   -0.0389 H   0  0  0  0  0  0  0  0  0  0  0  0
   -4.7143    2.6937    0.0697 H   0  0  0  0  0  0  0  0  0  0  0  0
   -3.1531    3.3579    0.1013 H   0  0  0  0  0  0  0  0  0  0  0  0
   -1.1469    2.0222    0.0440 H   0  0  0  0  0  0  0  0  0  0  0  0
    3.3643    2.2321    0.0589 H   0  0  0  0  0  0  0  0  0  0  0  0
    5.6644    1.2501    0.0179 H   0  0  0  0  0  0  0  0  0  0  0  0
    5.9815   -1.1915   -0.0906 H   0  0  0  0  0  0  0  0  0  0  0  0
    4.0367   -2.7254   -0.1614 H   0  0  0  0  0  0  0  0  0  0  0  0
   -1.6351   -2.2605   -0.1476 H   0  0  0  0  0  0  0  0  0  0  0  0
  1  2  1  0  0  0  0
  3  2  4  0  0  0  0
  4  3  4  0  0  0  0
  4  5  1  0  0  0  0
  6  4  4  0  0  0  0
  7  6  4  0  0  0  0
  7  8  1  0  0  0  0
  9  8  4  0  0  0  0
 10  9  4  0  0  0  0
 10 11  4  0  0  0  0
 11 12  4  0  0  0  0
 12 13  4  0  0  0  0
 13 14  4  0  0  0  0
 14 15  4  0  0  0  0
 16 15  4  0  0  0  0
 17  7  4  0  0  0  0
  2 17  4  0  0  0  0
  8 16  4  0  0  0  0
 15 10  4  0  0  0  0
  1 18  1  0  0  0  0
  3 19  1  0  0  0  0
  5 20  1  0  0  0  0
  5 21  1  0  0  0  0
  6 22  1  0  0  0  0
 11 23  1  0  0  0  0
 12 24  1  0  0  0  0
 13 25  1  0  0  0  0
 14 26  1  0  0  0  0
 17 27  1  0  0  0  0
M  CHG  1   1  -1
M  END
> <ID>
Row9

> <SMILE (InChI Code)>
InChI=1S/C13H10N3S/c14-9-5-8(6-10(15)7-9)13-16-11-3-1-2-4-12(11)17-13/h1-7,14H,15H2/q-1

> <ID_2>
GNYDWFXNHJDEOJ-UHFFFAOYSA-N

> <Converged>
true

> <Energy>
63.87550977372133

> <FINAL HEAT OF FORMATION (KCAL/MOL)>
53.81135

> <COSMO AREA (ANGSTROMS)>
259.39

> <COSMO VOLUME (ANGSTROMS)>
274.01

> <GRADIENT NORM>
0.08859

> <IONIZATION POTENTIAL (EV)>
3.32044

> <HOMO (EV)>
-3.32

> <LUMO (EV)>
1.869

$$$$
